Circuit: * C:\Users\izne\Desktop\lambo-1\simulation\LTspice\lambo-1-audio.asc

Direct Newton iteration for .op point succeeded.

Date: Sat Mar 12 18:27:43 2016
Total elapsed time: 0.054 seconds.

tnom = 27
temp = 27
method = modified trap
totiter = 2099
traniter = 2087
tranpoints = 1042
accept = 1042
rejected = 0
matrix size = 20
fillins = 4
solver = Normal
Matrix Compiler1: 1.70 KB object code size  0.8/0.6/[0.2]
Matrix Compiler2: 1.70 KB object code size  0.4/0.6/[0.4]


